
---------- Begin Simulation Statistics ----------
sim_seconds                                  0.002058                       # Number of seconds simulated
sim_ticks                                  2057700500                       # Number of ticks simulated
final_tick                                 2057700500                       # Number of ticks from beginning of simulation (restored from checkpoints and never reset)
sim_freq                                 1000000000000                       # Frequency of simulated ticks
host_inst_rate                                1715329                       # Simulator instruction rate (inst/s)
host_op_rate                                  1722773                       # Simulator op (including micro ops) rate (op/s)
host_tick_rate                              229158881                       # Simulator tick rate (ticks/s)
host_mem_usage                                 644368                       # Number of bytes of host memory used
host_seconds                                     8.98                       # Real time elapsed on the host
sim_insts                                    15402491                       # Number of instructions simulated
sim_ops                                      15469365                       # Number of ops (including micro ops) simulated
system.voltage_domain.voltage                       1                       # Voltage in Volts
system.clk_domain.clock                          1000                       # Clock period in ticks
system.mem_ctrls.bytes_read::cpu0.inst       16225940                       # Number of bytes read from this memory
system.mem_ctrls.bytes_read::cpu0.data        4053899                       # Number of bytes read from this memory
system.mem_ctrls.bytes_read::cpu1.inst       15128724                       # Number of bytes read from this memory
system.mem_ctrls.bytes_read::cpu1.data        4041806                       # Number of bytes read from this memory
system.mem_ctrls.bytes_read::cpu2.inst       15128052                       # Number of bytes read from this memory
system.mem_ctrls.bytes_read::cpu2.data        4041722                       # Number of bytes read from this memory
system.mem_ctrls.bytes_read::cpu3.inst       15127364                       # Number of bytes read from this memory
system.mem_ctrls.bytes_read::cpu3.data        4041630                       # Number of bytes read from this memory
system.mem_ctrls.bytes_read::total           77789137                       # Number of bytes read from this memory
system.mem_ctrls.bytes_inst_read::cpu0.inst     16225940                       # Number of instructions bytes read from this memory
system.mem_ctrls.bytes_inst_read::cpu1.inst     15128724                       # Number of instructions bytes read from this memory
system.mem_ctrls.bytes_inst_read::cpu2.inst     15128052                       # Number of instructions bytes read from this memory
system.mem_ctrls.bytes_inst_read::cpu3.inst     15127364                       # Number of instructions bytes read from this memory
system.mem_ctrls.bytes_inst_read::total      61610080                       # Number of instructions bytes read from this memory
system.mem_ctrls.bytes_written::cpu0.data       415067                       # Number of bytes written to this memory
system.mem_ctrls.bytes_written::cpu1.data        30844                       # Number of bytes written to this memory
system.mem_ctrls.bytes_written::cpu2.data        30844                       # Number of bytes written to this memory
system.mem_ctrls.bytes_written::cpu3.data        30864                       # Number of bytes written to this memory
system.mem_ctrls.bytes_written::total          507619                       # Number of bytes written to this memory
system.mem_ctrls.num_reads::cpu0.inst         4056485                       # Number of read requests responded to by this memory
system.mem_ctrls.num_reads::cpu0.data         1013076                       # Number of read requests responded to by this memory
system.mem_ctrls.num_reads::cpu1.inst         3782181                       # Number of read requests responded to by this memory
system.mem_ctrls.num_reads::cpu1.data         1010411                       # Number of read requests responded to by this memory
system.mem_ctrls.num_reads::cpu2.inst         3782013                       # Number of read requests responded to by this memory
system.mem_ctrls.num_reads::cpu2.data         1010390                       # Number of read requests responded to by this memory
system.mem_ctrls.num_reads::cpu3.inst         3781841                       # Number of read requests responded to by this memory
system.mem_ctrls.num_reads::cpu3.data         1010365                       # Number of read requests responded to by this memory
system.mem_ctrls.num_reads::total            19446762                       # Number of read requests responded to by this memory
system.mem_ctrls.num_writes::cpu0.data         103864                       # Number of write requests responded to by this memory
system.mem_ctrls.num_writes::cpu1.data           7711                       # Number of write requests responded to by this memory
system.mem_ctrls.num_writes::cpu2.data           7711                       # Number of write requests responded to by this memory
system.mem_ctrls.num_writes::cpu3.data           7716                       # Number of write requests responded to by this memory
system.mem_ctrls.num_writes::total             127002                       # Number of write requests responded to by this memory
system.mem_ctrls.bw_read::cpu0.inst        7885472157                       # Total read bandwidth from this memory (bytes/s)
system.mem_ctrls.bw_read::cpu0.data        1970111297                       # Total read bandwidth from this memory (bytes/s)
system.mem_ctrls.bw_read::cpu1.inst        7352247813                       # Total read bandwidth from this memory (bytes/s)
system.mem_ctrls.bw_read::cpu1.data        1964234348                       # Total read bandwidth from this memory (bytes/s)
system.mem_ctrls.bw_read::cpu2.inst        7351921234                       # Total read bandwidth from this memory (bytes/s)
system.mem_ctrls.bw_read::cpu2.data        1964193526                       # Total read bandwidth from this memory (bytes/s)
system.mem_ctrls.bw_read::cpu3.inst        7351586881                       # Total read bandwidth from this memory (bytes/s)
system.mem_ctrls.bw_read::cpu3.data        1964148816                       # Total read bandwidth from this memory (bytes/s)
system.mem_ctrls.bw_read::total           37803916070                       # Total read bandwidth from this memory (bytes/s)
system.mem_ctrls.bw_inst_read::cpu0.inst   7885472157                       # Instruction read bandwidth from this memory (bytes/s)
system.mem_ctrls.bw_inst_read::cpu1.inst   7352247813                       # Instruction read bandwidth from this memory (bytes/s)
system.mem_ctrls.bw_inst_read::cpu2.inst   7351921234                       # Instruction read bandwidth from this memory (bytes/s)
system.mem_ctrls.bw_inst_read::cpu3.inst   7351586881                       # Instruction read bandwidth from this memory (bytes/s)
system.mem_ctrls.bw_inst_read::total      29941228084                       # Instruction read bandwidth from this memory (bytes/s)
system.mem_ctrls.bw_write::cpu0.data        201714001                       # Write bandwidth from this memory (bytes/s)
system.mem_ctrls.bw_write::cpu1.data         14989548                       # Write bandwidth from this memory (bytes/s)
system.mem_ctrls.bw_write::cpu2.data         14989548                       # Write bandwidth from this memory (bytes/s)
system.mem_ctrls.bw_write::cpu3.data         14999267                       # Write bandwidth from this memory (bytes/s)
system.mem_ctrls.bw_write::total            246692364                       # Write bandwidth from this memory (bytes/s)
system.mem_ctrls.bw_total::cpu0.inst       7885472157                       # Total bandwidth to/from this memory (bytes/s)
system.mem_ctrls.bw_total::cpu0.data       2171825297                       # Total bandwidth to/from this memory (bytes/s)
system.mem_ctrls.bw_total::cpu1.inst       7352247813                       # Total bandwidth to/from this memory (bytes/s)
system.mem_ctrls.bw_total::cpu1.data       1979223896                       # Total bandwidth to/from this memory (bytes/s)
system.mem_ctrls.bw_total::cpu2.inst       7351921234                       # Total bandwidth to/from this memory (bytes/s)
system.mem_ctrls.bw_total::cpu2.data       1979183074                       # Total bandwidth to/from this memory (bytes/s)
system.mem_ctrls.bw_total::cpu3.inst       7351586881                       # Total bandwidth to/from this memory (bytes/s)
system.mem_ctrls.bw_total::cpu3.data       1979148083                       # Total bandwidth to/from this memory (bytes/s)
system.mem_ctrls.bw_total::total          38050608434                       # Total bandwidth to/from this memory (bytes/s)
system.mem_ctrls.readReqs                           0                       # Number of read requests accepted
system.mem_ctrls.writeReqs                          0                       # Number of write requests accepted
system.mem_ctrls.readBursts                         0                       # Number of DRAM read bursts, including those serviced by the write queue
system.mem_ctrls.writeBursts                        0                       # Number of DRAM write bursts, including those merged in the write queue
system.mem_ctrls.bytesReadDRAM                      0                       # Total number of bytes read from DRAM
system.mem_ctrls.bytesReadWrQ                       0                       # Total number of bytes read from write queue
system.mem_ctrls.bytesWritten                       0                       # Total number of bytes written to DRAM
system.mem_ctrls.bytesReadSys                       0                       # Total read bytes from the system interface side
system.mem_ctrls.bytesWrittenSys                    0                       # Total written bytes from the system interface side
system.mem_ctrls.servicedByWrQ                      0                       # Number of DRAM read bursts serviced by the write queue
system.mem_ctrls.mergedWrBursts                     0                       # Number of DRAM write bursts merged with an existing one
system.mem_ctrls.neitherReadNorWriteReqs            0                       # Number of requests that are neither read nor write
system.mem_ctrls.perBankRdBursts::0                 0                       # Per bank write bursts
system.mem_ctrls.perBankRdBursts::1                 0                       # Per bank write bursts
system.mem_ctrls.perBankRdBursts::2                 0                       # Per bank write bursts
system.mem_ctrls.perBankRdBursts::3                 0                       # Per bank write bursts
system.mem_ctrls.perBankRdBursts::4                 0                       # Per bank write bursts
system.mem_ctrls.perBankRdBursts::5                 0                       # Per bank write bursts
system.mem_ctrls.perBankRdBursts::6                 0                       # Per bank write bursts
system.mem_ctrls.perBankRdBursts::7                 0                       # Per bank write bursts
system.mem_ctrls.perBankRdBursts::8                 0                       # Per bank write bursts
system.mem_ctrls.perBankRdBursts::9                 0                       # Per bank write bursts
system.mem_ctrls.perBankRdBursts::10                0                       # Per bank write bursts
system.mem_ctrls.perBankRdBursts::11                0                       # Per bank write bursts
system.mem_ctrls.perBankRdBursts::12                0                       # Per bank write bursts
system.mem_ctrls.perBankRdBursts::13                0                       # Per bank write bursts
system.mem_ctrls.perBankRdBursts::14                0                       # Per bank write bursts
system.mem_ctrls.perBankRdBursts::15                0                       # Per bank write bursts
system.mem_ctrls.perBankWrBursts::0                 0                       # Per bank write bursts
system.mem_ctrls.perBankWrBursts::1                 0                       # Per bank write bursts
system.mem_ctrls.perBankWrBursts::2                 0                       # Per bank write bursts
system.mem_ctrls.perBankWrBursts::3                 0                       # Per bank write bursts
system.mem_ctrls.perBankWrBursts::4                 0                       # Per bank write bursts
system.mem_ctrls.perBankWrBursts::5                 0                       # Per bank write bursts
system.mem_ctrls.perBankWrBursts::6                 0                       # Per bank write bursts
system.mem_ctrls.perBankWrBursts::7                 0                       # Per bank write bursts
system.mem_ctrls.perBankWrBursts::8                 0                       # Per bank write bursts
system.mem_ctrls.perBankWrBursts::9                 0                       # Per bank write bursts
system.mem_ctrls.perBankWrBursts::10                0                       # Per bank write bursts
system.mem_ctrls.perBankWrBursts::11                0                       # Per bank write bursts
system.mem_ctrls.perBankWrBursts::12                0                       # Per bank write bursts
system.mem_ctrls.perBankWrBursts::13                0                       # Per bank write bursts
system.mem_ctrls.perBankWrBursts::14                0                       # Per bank write bursts
system.mem_ctrls.perBankWrBursts::15                0                       # Per bank write bursts
system.mem_ctrls.numRdRetry                         0                       # Number of times read queue was full causing retry
system.mem_ctrls.numWrRetry                         0                       # Number of times write queue was full causing retry
system.mem_ctrls.totGap                             0                       # Total gap between requests
system.mem_ctrls.readPktSize::0                     0                       # Read request sizes (log2)
system.mem_ctrls.readPktSize::1                     0                       # Read request sizes (log2)
system.mem_ctrls.readPktSize::2                     0                       # Read request sizes (log2)
system.mem_ctrls.readPktSize::3                     0                       # Read request sizes (log2)
system.mem_ctrls.readPktSize::4                     0                       # Read request sizes (log2)
system.mem_ctrls.readPktSize::5                     0                       # Read request sizes (log2)
system.mem_ctrls.readPktSize::6                     0                       # Read request sizes (log2)
system.mem_ctrls.writePktSize::0                    0                       # Write request sizes (log2)
system.mem_ctrls.writePktSize::1                    0                       # Write request sizes (log2)
system.mem_ctrls.writePktSize::2                    0                       # Write request sizes (log2)
system.mem_ctrls.writePktSize::3                    0                       # Write request sizes (log2)
system.mem_ctrls.writePktSize::4                    0                       # Write request sizes (log2)
system.mem_ctrls.writePktSize::5                    0                       # Write request sizes (log2)
system.mem_ctrls.writePktSize::6                    0                       # Write request sizes (log2)
system.mem_ctrls.rdQLenPdf::0                       0                       # What read queue length does an incoming req see
system.mem_ctrls.rdQLenPdf::1                       0                       # What read queue length does an incoming req see
system.mem_ctrls.rdQLenPdf::2                       0                       # What read queue length does an incoming req see
system.mem_ctrls.rdQLenPdf::3                       0                       # What read queue length does an incoming req see
system.mem_ctrls.rdQLenPdf::4                       0                       # What read queue length does an incoming req see
system.mem_ctrls.rdQLenPdf::5                       0                       # What read queue length does an incoming req see
system.mem_ctrls.rdQLenPdf::6                       0                       # What read queue length does an incoming req see
system.mem_ctrls.rdQLenPdf::7                       0                       # What read queue length does an incoming req see
system.mem_ctrls.rdQLenPdf::8                       0                       # What read queue length does an incoming req see
system.mem_ctrls.rdQLenPdf::9                       0                       # What read queue length does an incoming req see
system.mem_ctrls.rdQLenPdf::10                      0                       # What read queue length does an incoming req see
system.mem_ctrls.rdQLenPdf::11                      0                       # What read queue length does an incoming req see
system.mem_ctrls.rdQLenPdf::12                      0                       # What read queue length does an incoming req see
system.mem_ctrls.rdQLenPdf::13                      0                       # What read queue length does an incoming req see
system.mem_ctrls.rdQLenPdf::14                      0                       # What read queue length does an incoming req see
system.mem_ctrls.rdQLenPdf::15                      0                       # What read queue length does an incoming req see
system.mem_ctrls.rdQLenPdf::16                      0                       # What read queue length does an incoming req see
system.mem_ctrls.rdQLenPdf::17                      0                       # What read queue length does an incoming req see
system.mem_ctrls.rdQLenPdf::18                      0                       # What read queue length does an incoming req see
system.mem_ctrls.rdQLenPdf::19                      0                       # What read queue length does an incoming req see
system.mem_ctrls.rdQLenPdf::20                      0                       # What read queue length does an incoming req see
system.mem_ctrls.rdQLenPdf::21                      0                       # What read queue length does an incoming req see
system.mem_ctrls.rdQLenPdf::22                      0                       # What read queue length does an incoming req see
system.mem_ctrls.rdQLenPdf::23                      0                       # What read queue length does an incoming req see
system.mem_ctrls.rdQLenPdf::24                      0                       # What read queue length does an incoming req see
system.mem_ctrls.rdQLenPdf::25                      0                       # What read queue length does an incoming req see
system.mem_ctrls.rdQLenPdf::26                      0                       # What read queue length does an incoming req see
system.mem_ctrls.rdQLenPdf::27                      0                       # What read queue length does an incoming req see
system.mem_ctrls.rdQLenPdf::28                      0                       # What read queue length does an incoming req see
system.mem_ctrls.rdQLenPdf::29                      0                       # What read queue length does an incoming req see
system.mem_ctrls.rdQLenPdf::30                      0                       # What read queue length does an incoming req see
system.mem_ctrls.rdQLenPdf::31                      0                       # What read queue length does an incoming req see
system.mem_ctrls.wrQLenPdf::0                       0                       # What write queue length does an incoming req see
system.mem_ctrls.wrQLenPdf::1                       0                       # What write queue length does an incoming req see
system.mem_ctrls.wrQLenPdf::2                       0                       # What write queue length does an incoming req see
system.mem_ctrls.wrQLenPdf::3                       0                       # What write queue length does an incoming req see
system.mem_ctrls.wrQLenPdf::4                       0                       # What write queue length does an incoming req see
system.mem_ctrls.wrQLenPdf::5                       0                       # What write queue length does an incoming req see
system.mem_ctrls.wrQLenPdf::6                       0                       # What write queue length does an incoming req see
system.mem_ctrls.wrQLenPdf::7                       0                       # What write queue length does an incoming req see
system.mem_ctrls.wrQLenPdf::8                       0                       # What write queue length does an incoming req see
system.mem_ctrls.wrQLenPdf::9                       0                       # What write queue length does an incoming req see
system.mem_ctrls.wrQLenPdf::10                      0                       # What write queue length does an incoming req see
system.mem_ctrls.wrQLenPdf::11                      0                       # What write queue length does an incoming req see
system.mem_ctrls.wrQLenPdf::12                      0                       # What write queue length does an incoming req see
system.mem_ctrls.wrQLenPdf::13                      0                       # What write queue length does an incoming req see
system.mem_ctrls.wrQLenPdf::14                      0                       # What write queue length does an incoming req see
system.mem_ctrls.wrQLenPdf::15                      0                       # What write queue length does an incoming req see
system.mem_ctrls.wrQLenPdf::16                      0                       # What write queue length does an incoming req see
system.mem_ctrls.wrQLenPdf::17                      0                       # What write queue length does an incoming req see
system.mem_ctrls.wrQLenPdf::18                      0                       # What write queue length does an incoming req see
system.mem_ctrls.wrQLenPdf::19                      0                       # What write queue length does an incoming req see
system.mem_ctrls.wrQLenPdf::20                      0                       # What write queue length does an incoming req see
system.mem_ctrls.wrQLenPdf::21                      0                       # What write queue length does an incoming req see
system.mem_ctrls.wrQLenPdf::22                      0                       # What write queue length does an incoming req see
system.mem_ctrls.wrQLenPdf::23                      0                       # What write queue length does an incoming req see
system.mem_ctrls.wrQLenPdf::24                      0                       # What write queue length does an incoming req see
system.mem_ctrls.wrQLenPdf::25                      0                       # What write queue length does an incoming req see
system.mem_ctrls.wrQLenPdf::26                      0                       # What write queue length does an incoming req see
system.mem_ctrls.wrQLenPdf::27                      0                       # What write queue length does an incoming req see
system.mem_ctrls.wrQLenPdf::28                      0                       # What write queue length does an incoming req see
system.mem_ctrls.wrQLenPdf::29                      0                       # What write queue length does an incoming req see
system.mem_ctrls.wrQLenPdf::30                      0                       # What write queue length does an incoming req see
system.mem_ctrls.wrQLenPdf::31                      0                       # What write queue length does an incoming req see
system.mem_ctrls.wrQLenPdf::32                      0                       # What write queue length does an incoming req see
system.mem_ctrls.wrQLenPdf::33                      0                       # What write queue length does an incoming req see
system.mem_ctrls.wrQLenPdf::34                      0                       # What write queue length does an incoming req see
system.mem_ctrls.wrQLenPdf::35                      0                       # What write queue length does an incoming req see
system.mem_ctrls.wrQLenPdf::36                      0                       # What write queue length does an incoming req see
system.mem_ctrls.wrQLenPdf::37                      0                       # What write queue length does an incoming req see
system.mem_ctrls.wrQLenPdf::38                      0                       # What write queue length does an incoming req see
system.mem_ctrls.wrQLenPdf::39                      0                       # What write queue length does an incoming req see
system.mem_ctrls.wrQLenPdf::40                      0                       # What write queue length does an incoming req see
system.mem_ctrls.wrQLenPdf::41                      0                       # What write queue length does an incoming req see
system.mem_ctrls.wrQLenPdf::42                      0                       # What write queue length does an incoming req see
system.mem_ctrls.wrQLenPdf::43                      0                       # What write queue length does an incoming req see
system.mem_ctrls.wrQLenPdf::44                      0                       # What write queue length does an incoming req see
system.mem_ctrls.wrQLenPdf::45                      0                       # What write queue length does an incoming req see
system.mem_ctrls.wrQLenPdf::46                      0                       # What write queue length does an incoming req see
system.mem_ctrls.wrQLenPdf::47                      0                       # What write queue length does an incoming req see
system.mem_ctrls.wrQLenPdf::48                      0                       # What write queue length does an incoming req see
system.mem_ctrls.wrQLenPdf::49                      0                       # What write queue length does an incoming req see
system.mem_ctrls.wrQLenPdf::50                      0                       # What write queue length does an incoming req see
system.mem_ctrls.wrQLenPdf::51                      0                       # What write queue length does an incoming req see
system.mem_ctrls.wrQLenPdf::52                      0                       # What write queue length does an incoming req see
system.mem_ctrls.wrQLenPdf::53                      0                       # What write queue length does an incoming req see
system.mem_ctrls.wrQLenPdf::54                      0                       # What write queue length does an incoming req see
system.mem_ctrls.wrQLenPdf::55                      0                       # What write queue length does an incoming req see
system.mem_ctrls.wrQLenPdf::56                      0                       # What write queue length does an incoming req see
system.mem_ctrls.wrQLenPdf::57                      0                       # What write queue length does an incoming req see
system.mem_ctrls.wrQLenPdf::58                      0                       # What write queue length does an incoming req see
system.mem_ctrls.wrQLenPdf::59                      0                       # What write queue length does an incoming req see
system.mem_ctrls.wrQLenPdf::60                      0                       # What write queue length does an incoming req see
system.mem_ctrls.wrQLenPdf::61                      0                       # What write queue length does an incoming req see
system.mem_ctrls.wrQLenPdf::62                      0                       # What write queue length does an incoming req see
system.mem_ctrls.wrQLenPdf::63                      0                       # What write queue length does an incoming req see
system.mem_ctrls.totQLat                            0                       # Total ticks spent queuing
system.mem_ctrls.totMemAccLat                       0                       # Total ticks spent from burst creation until serviced by the DRAM
system.mem_ctrls.totBusLat                          0                       # Total ticks spent in databus transfers
system.mem_ctrls.avgQLat                          nan                       # Average queueing delay per DRAM burst
system.mem_ctrls.avgBusLat                        nan                       # Average bus latency per DRAM burst
system.mem_ctrls.avgMemAccLat                     nan                       # Average memory access latency per DRAM burst
system.mem_ctrls.avgRdBW                         0.00                       # Average DRAM read bandwidth in MiByte/s
system.mem_ctrls.avgWrBW                         0.00                       # Average achieved write bandwidth in MiByte/s
system.mem_ctrls.avgRdBWSys                      0.00                       # Average system read bandwidth in MiByte/s
system.mem_ctrls.avgWrBWSys                      0.00                       # Average system write bandwidth in MiByte/s
system.mem_ctrls.peakBW                      12800.00                       # Theoretical peak bandwidth in MiByte/s
system.mem_ctrls.busUtil                         0.00                       # Data bus utilization in percentage
system.mem_ctrls.busUtilRead                     0.00                       # Data bus utilization in percentage for reads
system.mem_ctrls.busUtilWrite                    0.00                       # Data bus utilization in percentage for writes
system.mem_ctrls.avgRdQLen                       0.00                       # Average read queue length when enqueuing
system.mem_ctrls.avgWrQLen                       0.00                       # Average write queue length when enqueuing
system.mem_ctrls.readRowHits                        0                       # Number of row buffer hits during reads
system.mem_ctrls.writeRowHits                       0                       # Number of row buffer hits during writes
system.mem_ctrls.readRowHitRate                   nan                       # Row buffer hit rate for reads
system.mem_ctrls.writeRowHitRate                  nan                       # Row buffer hit rate for writes
system.mem_ctrls.avgGap                           nan                       # Average gap between requests
system.mem_ctrls.pageHitRate                      nan                       # Row buffer hit rate, read and write combined
system.mem_ctrls_0.actEnergy                        0                       # Energy for activate commands per rank (pJ)
system.mem_ctrls_0.preEnergy                        0                       # Energy for precharge commands per rank (pJ)
system.mem_ctrls_0.readEnergy                       0                       # Energy for read commands per rank (pJ)
system.mem_ctrls_0.writeEnergy                      0                       # Energy for write commands per rank (pJ)
system.mem_ctrls_0.refreshEnergy                    0                       # Energy for refresh commands per rank (pJ)
system.mem_ctrls_0.actBackEnergy                    0                       # Energy for active background per rank (pJ)
system.mem_ctrls_0.preBackEnergy                    0                       # Energy for precharge background per rank (pJ)
system.mem_ctrls_0.totalEnergy                      0                       # Total energy per rank (pJ)
system.mem_ctrls_0.averagePower                     0                       # Core power per rank (mW)
system.mem_ctrls_0.memoryStateTime::IDLE            0                       # Time in different power states
system.mem_ctrls_0.memoryStateTime::REF             0                       # Time in different power states
system.mem_ctrls_0.memoryStateTime::PRE_PDN            0                       # Time in different power states
system.mem_ctrls_0.memoryStateTime::ACT             0                       # Time in different power states
system.mem_ctrls_0.memoryStateTime::ACT_PDN            0                       # Time in different power states
system.mem_ctrls_1.actEnergy                        0                       # Energy for activate commands per rank (pJ)
system.mem_ctrls_1.preEnergy                        0                       # Energy for precharge commands per rank (pJ)
system.mem_ctrls_1.readEnergy                       0                       # Energy for read commands per rank (pJ)
system.mem_ctrls_1.writeEnergy                      0                       # Energy for write commands per rank (pJ)
system.mem_ctrls_1.refreshEnergy                    0                       # Energy for refresh commands per rank (pJ)
system.mem_ctrls_1.actBackEnergy                    0                       # Energy for active background per rank (pJ)
system.mem_ctrls_1.preBackEnergy                    0                       # Energy for precharge background per rank (pJ)
system.mem_ctrls_1.totalEnergy                      0                       # Total energy per rank (pJ)
system.mem_ctrls_1.averagePower                     0                       # Core power per rank (mW)
system.mem_ctrls_1.memoryStateTime::IDLE            0                       # Time in different power states
system.mem_ctrls_1.memoryStateTime::REF             0                       # Time in different power states
system.mem_ctrls_1.memoryStateTime::PRE_PDN            0                       # Time in different power states
system.mem_ctrls_1.memoryStateTime::ACT             0                       # Time in different power states
system.mem_ctrls_1.memoryStateTime::ACT_PDN            0                       # Time in different power states
system.cpu_voltage_domain.voltage                   1                       # Voltage in Volts
system.cpu_clk_domain.clock                       500                       # Clock period in ticks
system.cpu0.dstage2_mmu.stage2_tlb.walker.walks            0                       # Table walker walks requested
system.cpu0.dstage2_mmu.stage2_tlb.walker.walkRequestOrigin_Requested::Data            0                       # Table walker requests started/completed, data/inst
system.cpu0.dstage2_mmu.stage2_tlb.walker.walkRequestOrigin_Requested::Inst            0                       # Table walker requests started/completed, data/inst
system.cpu0.dstage2_mmu.stage2_tlb.walker.walkRequestOrigin_Requested::total            0                       # Table walker requests started/completed, data/inst
system.cpu0.dstage2_mmu.stage2_tlb.walker.walkRequestOrigin_Completed::Data            0                       # Table walker requests started/completed, data/inst
system.cpu0.dstage2_mmu.stage2_tlb.walker.walkRequestOrigin_Completed::Inst            0                       # Table walker requests started/completed, data/inst
system.cpu0.dstage2_mmu.stage2_tlb.walker.walkRequestOrigin_Completed::total            0                       # Table walker requests started/completed, data/inst
system.cpu0.dstage2_mmu.stage2_tlb.walker.walkRequestOrigin::total            0                       # Table walker requests started/completed, data/inst
system.cpu0.dstage2_mmu.stage2_tlb.inst_hits            0                       # ITB inst hits
system.cpu0.dstage2_mmu.stage2_tlb.inst_misses            0                       # ITB inst misses
system.cpu0.dstage2_mmu.stage2_tlb.read_hits            0                       # DTB read hits
system.cpu0.dstage2_mmu.stage2_tlb.read_misses            0                       # DTB read misses
system.cpu0.dstage2_mmu.stage2_tlb.write_hits            0                       # DTB write hits
system.cpu0.dstage2_mmu.stage2_tlb.write_misses            0                       # DTB write misses
system.cpu0.dstage2_mmu.stage2_tlb.flush_tlb            0                       # Number of times complete TLB was flushed
system.cpu0.dstage2_mmu.stage2_tlb.flush_tlb_mva            0                       # Number of times TLB was flushed by MVA
system.cpu0.dstage2_mmu.stage2_tlb.flush_tlb_mva_asid            0                       # Number of times TLB was flushed by MVA & ASID
system.cpu0.dstage2_mmu.stage2_tlb.flush_tlb_asid            0                       # Number of times TLB was flushed by ASID
system.cpu0.dstage2_mmu.stage2_tlb.flush_entries            0                       # Number of entries that have been flushed from TLB
system.cpu0.dstage2_mmu.stage2_tlb.align_faults            0                       # Number of TLB faults due to alignment restrictions
system.cpu0.dstage2_mmu.stage2_tlb.prefetch_faults            0                       # Number of TLB faults due to prefetch
system.cpu0.dstage2_mmu.stage2_tlb.domain_faults            0                       # Number of TLB faults due to domain restrictions
system.cpu0.dstage2_mmu.stage2_tlb.perms_faults            0                       # Number of TLB faults due to permissions restrictions
system.cpu0.dstage2_mmu.stage2_tlb.read_accesses            0                       # DTB read accesses
system.cpu0.dstage2_mmu.stage2_tlb.write_accesses            0                       # DTB write accesses
system.cpu0.dstage2_mmu.stage2_tlb.inst_accesses            0                       # ITB inst accesses
system.cpu0.dstage2_mmu.stage2_tlb.hits             0                       # DTB hits
system.cpu0.dstage2_mmu.stage2_tlb.misses            0                       # DTB misses
system.cpu0.dstage2_mmu.stage2_tlb.accesses            0                       # DTB accesses
system.cpu0.dtb.walker.walks                        0                       # Table walker walks requested
system.cpu0.dtb.walker.walkRequestOrigin_Requested::Data            0                       # Table walker requests started/completed, data/inst
system.cpu0.dtb.walker.walkRequestOrigin_Requested::Inst            0                       # Table walker requests started/completed, data/inst
system.cpu0.dtb.walker.walkRequestOrigin_Requested::total            0                       # Table walker requests started/completed, data/inst
system.cpu0.dtb.walker.walkRequestOrigin_Completed::Data            0                       # Table walker requests started/completed, data/inst
system.cpu0.dtb.walker.walkRequestOrigin_Completed::Inst            0                       # Table walker requests started/completed, data/inst
system.cpu0.dtb.walker.walkRequestOrigin_Completed::total            0                       # Table walker requests started/completed, data/inst
system.cpu0.dtb.walker.walkRequestOrigin::total            0                       # Table walker requests started/completed, data/inst
system.cpu0.dtb.inst_hits                           0                       # ITB inst hits
system.cpu0.dtb.inst_misses                         0                       # ITB inst misses
system.cpu0.dtb.read_hits                           0                       # DTB read hits
system.cpu0.dtb.read_misses                         0                       # DTB read misses
system.cpu0.dtb.write_hits                          0                       # DTB write hits
system.cpu0.dtb.write_misses                        0                       # DTB write misses
system.cpu0.dtb.flush_tlb                           0                       # Number of times complete TLB was flushed
system.cpu0.dtb.flush_tlb_mva                       0                       # Number of times TLB was flushed by MVA
system.cpu0.dtb.flush_tlb_mva_asid                  0                       # Number of times TLB was flushed by MVA & ASID
system.cpu0.dtb.flush_tlb_asid                      0                       # Number of times TLB was flushed by ASID
system.cpu0.dtb.flush_entries                       0                       # Number of entries that have been flushed from TLB
system.cpu0.dtb.align_faults                        0                       # Number of TLB faults due to alignment restrictions
system.cpu0.dtb.prefetch_faults                     0                       # Number of TLB faults due to prefetch
system.cpu0.dtb.domain_faults                       0                       # Number of TLB faults due to domain restrictions
system.cpu0.dtb.perms_faults                        0                       # Number of TLB faults due to permissions restrictions
system.cpu0.dtb.read_accesses                       0                       # DTB read accesses
system.cpu0.dtb.write_accesses                      0                       # DTB write accesses
system.cpu0.dtb.inst_accesses                       0                       # ITB inst accesses
system.cpu0.dtb.hits                                0                       # DTB hits
system.cpu0.dtb.misses                              0                       # DTB misses
system.cpu0.dtb.accesses                            0                       # DTB accesses
system.cpu0.istage2_mmu.stage2_tlb.walker.walks            0                       # Table walker walks requested
system.cpu0.istage2_mmu.stage2_tlb.walker.walkRequestOrigin_Requested::Data            0                       # Table walker requests started/completed, data/inst
system.cpu0.istage2_mmu.stage2_tlb.walker.walkRequestOrigin_Requested::Inst            0                       # Table walker requests started/completed, data/inst
system.cpu0.istage2_mmu.stage2_tlb.walker.walkRequestOrigin_Requested::total            0                       # Table walker requests started/completed, data/inst
system.cpu0.istage2_mmu.stage2_tlb.walker.walkRequestOrigin_Completed::Data            0                       # Table walker requests started/completed, data/inst
system.cpu0.istage2_mmu.stage2_tlb.walker.walkRequestOrigin_Completed::Inst            0                       # Table walker requests started/completed, data/inst
system.cpu0.istage2_mmu.stage2_tlb.walker.walkRequestOrigin_Completed::total            0                       # Table walker requests started/completed, data/inst
system.cpu0.istage2_mmu.stage2_tlb.walker.walkRequestOrigin::total            0                       # Table walker requests started/completed, data/inst
system.cpu0.istage2_mmu.stage2_tlb.inst_hits            0                       # ITB inst hits
system.cpu0.istage2_mmu.stage2_tlb.inst_misses            0                       # ITB inst misses
system.cpu0.istage2_mmu.stage2_tlb.read_hits            0                       # DTB read hits
system.cpu0.istage2_mmu.stage2_tlb.read_misses            0                       # DTB read misses
system.cpu0.istage2_mmu.stage2_tlb.write_hits            0                       # DTB write hits
system.cpu0.istage2_mmu.stage2_tlb.write_misses            0                       # DTB write misses
system.cpu0.istage2_mmu.stage2_tlb.flush_tlb            0                       # Number of times complete TLB was flushed
system.cpu0.istage2_mmu.stage2_tlb.flush_tlb_mva            0                       # Number of times TLB was flushed by MVA
system.cpu0.istage2_mmu.stage2_tlb.flush_tlb_mva_asid            0                       # Number of times TLB was flushed by MVA & ASID
system.cpu0.istage2_mmu.stage2_tlb.flush_tlb_asid            0                       # Number of times TLB was flushed by ASID
system.cpu0.istage2_mmu.stage2_tlb.flush_entries            0                       # Number of entries that have been flushed from TLB
system.cpu0.istage2_mmu.stage2_tlb.align_faults            0                       # Number of TLB faults due to alignment restrictions
system.cpu0.istage2_mmu.stage2_tlb.prefetch_faults            0                       # Number of TLB faults due to prefetch
system.cpu0.istage2_mmu.stage2_tlb.domain_faults            0                       # Number of TLB faults due to domain restrictions
system.cpu0.istage2_mmu.stage2_tlb.perms_faults            0                       # Number of TLB faults due to permissions restrictions
system.cpu0.istage2_mmu.stage2_tlb.read_accesses            0                       # DTB read accesses
system.cpu0.istage2_mmu.stage2_tlb.write_accesses            0                       # DTB write accesses
system.cpu0.istage2_mmu.stage2_tlb.inst_accesses            0                       # ITB inst accesses
system.cpu0.istage2_mmu.stage2_tlb.hits             0                       # DTB hits
system.cpu0.istage2_mmu.stage2_tlb.misses            0                       # DTB misses
system.cpu0.istage2_mmu.stage2_tlb.accesses            0                       # DTB accesses
system.cpu0.itb.walker.walks                        0                       # Table walker walks requested
system.cpu0.itb.walker.walkRequestOrigin_Requested::Data            0                       # Table walker requests started/completed, data/inst
system.cpu0.itb.walker.walkRequestOrigin_Requested::Inst            0                       # Table walker requests started/completed, data/inst
system.cpu0.itb.walker.walkRequestOrigin_Requested::total            0                       # Table walker requests started/completed, data/inst
system.cpu0.itb.walker.walkRequestOrigin_Completed::Data            0                       # Table walker requests started/completed, data/inst
system.cpu0.itb.walker.walkRequestOrigin_Completed::Inst            0                       # Table walker requests started/completed, data/inst
system.cpu0.itb.walker.walkRequestOrigin_Completed::total            0                       # Table walker requests started/completed, data/inst
system.cpu0.itb.walker.walkRequestOrigin::total            0                       # Table walker requests started/completed, data/inst
system.cpu0.itb.inst_hits                           0                       # ITB inst hits
system.cpu0.itb.inst_misses                         0                       # ITB inst misses
system.cpu0.itb.read_hits                           0                       # DTB read hits
system.cpu0.itb.read_misses                         0                       # DTB read misses
system.cpu0.itb.write_hits                          0                       # DTB write hits
system.cpu0.itb.write_misses                        0                       # DTB write misses
system.cpu0.itb.flush_tlb                           0                       # Number of times complete TLB was flushed
system.cpu0.itb.flush_tlb_mva                       0                       # Number of times TLB was flushed by MVA
system.cpu0.itb.flush_tlb_mva_asid                  0                       # Number of times TLB was flushed by MVA & ASID
system.cpu0.itb.flush_tlb_asid                      0                       # Number of times TLB was flushed by ASID
system.cpu0.itb.flush_entries                       0                       # Number of entries that have been flushed from TLB
system.cpu0.itb.align_faults                        0                       # Number of TLB faults due to alignment restrictions
system.cpu0.itb.prefetch_faults                     0                       # Number of TLB faults due to prefetch
system.cpu0.itb.domain_faults                       0                       # Number of TLB faults due to domain restrictions
system.cpu0.itb.perms_faults                        0                       # Number of TLB faults due to permissions restrictions
system.cpu0.itb.read_accesses                       0                       # DTB read accesses
system.cpu0.itb.write_accesses                      0                       # DTB write accesses
system.cpu0.itb.inst_accesses                       0                       # ITB inst accesses
system.cpu0.itb.hits                                0                       # DTB hits
system.cpu0.itb.misses                              0                       # DTB misses
system.cpu0.itb.accesses                            0                       # DTB accesses
system.cpu0.workload.num_syscalls                  29                       # Number of system calls
system.cpu0.numCycles                         4115402                       # number of cpu cycles simulated
system.cpu0.numWorkItemsStarted                     0                       # number of work items this cpu started
system.cpu0.numWorkItemsCompleted                   0                       # number of work items this cpu completed
system.cpu0.committedInsts                    4056463                       # Number of instructions committed
system.cpu0.committedOps                      4115380                       # Number of ops (including micro ops) committed
system.cpu0.num_int_alu_accesses              3833455                       # Number of integer alu accesses
system.cpu0.num_fp_alu_accesses                    28                       # Number of float alu accesses
system.cpu0.num_func_calls                        597                       # number of times a function call or return occured
system.cpu0.num_conditional_control_insts       281728                       # number of instructions that are conditional controls
system.cpu0.num_int_insts                     3833455                       # number of integer instructions
system.cpu0.num_fp_insts                           28                       # number of float instructions
system.cpu0.num_int_register_reads            7913921                       # number of times the integer registers were read
system.cpu0.num_int_register_writes           3703995                       # number of times the integer registers were written
system.cpu0.num_fp_register_reads                  22                       # number of times the floating registers were read
system.cpu0.num_fp_register_writes                  6                       # number of times the floating registers were written
system.cpu0.num_cc_register_reads            12346208                       # number of times the CC registers were read
system.cpu0.num_cc_register_writes            1656556                       # number of times the CC registers were written
system.cpu0.num_mem_refs                      1117095                       # number of memory refs
system.cpu0.num_load_insts                    1013134                       # Number of load instructions
system.cpu0.num_store_insts                    103961                       # Number of store instructions
system.cpu0.num_idle_cycles                  0.002000                       # Number of idle cycles
system.cpu0.num_busy_cycles              4115401.998000                       # Number of busy cycles
system.cpu0.not_idle_fraction                1.000000                       # Percentage of non-idle cycles
system.cpu0.idle_fraction                    0.000000                       # Percentage of idle cycles
system.cpu0.Branches                           282432                       # Number of branches fetched
system.cpu0.op_class::No_OpClass                    0      0.00%      0.00% # Class of executed instruction
system.cpu0.op_class::IntAlu                  2228276     54.14%     54.14% # Class of executed instruction
system.cpu0.op_class::IntMult                  770028     18.71%     72.86% # Class of executed instruction
system.cpu0.op_class::IntDiv                        0      0.00%     72.86% # Class of executed instruction
system.cpu0.op_class::FloatAdd                      0      0.00%     72.86% # Class of executed instruction
system.cpu0.op_class::FloatCmp                      0      0.00%     72.86% # Class of executed instruction
system.cpu0.op_class::FloatCvt                      0      0.00%     72.86% # Class of executed instruction
system.cpu0.op_class::FloatMult                     0      0.00%     72.86% # Class of executed instruction
system.cpu0.op_class::FloatDiv                      0      0.00%     72.86% # Class of executed instruction
system.cpu0.op_class::FloatSqrt                     0      0.00%     72.86% # Class of executed instruction
system.cpu0.op_class::SimdAdd                       0      0.00%     72.86% # Class of executed instruction
system.cpu0.op_class::SimdAddAcc                    0      0.00%     72.86% # Class of executed instruction
system.cpu0.op_class::SimdAlu                       0      0.00%     72.86% # Class of executed instruction
system.cpu0.op_class::SimdCmp                       0      0.00%     72.86% # Class of executed instruction
system.cpu0.op_class::SimdCvt                       0      0.00%     72.86% # Class of executed instruction
system.cpu0.op_class::SimdMisc                      0      0.00%     72.86% # Class of executed instruction
system.cpu0.op_class::SimdMult                      0      0.00%     72.86% # Class of executed instruction
system.cpu0.op_class::SimdMultAcc                   0      0.00%     72.86% # Class of executed instruction
system.cpu0.op_class::SimdShift                     0      0.00%     72.86% # Class of executed instruction
system.cpu0.op_class::SimdShiftAcc                  0      0.00%     72.86% # Class of executed instruction
system.cpu0.op_class::SimdSqrt                      0      0.00%     72.86% # Class of executed instruction
system.cpu0.op_class::SimdFloatAdd                  0      0.00%     72.86% # Class of executed instruction
system.cpu0.op_class::SimdFloatAlu                  0      0.00%     72.86% # Class of executed instruction
system.cpu0.op_class::SimdFloatCmp                  0      0.00%     72.86% # Class of executed instruction
system.cpu0.op_class::SimdFloatCvt                  0      0.00%     72.86% # Class of executed instruction
system.cpu0.op_class::SimdFloatDiv                  0      0.00%     72.86% # Class of executed instruction
system.cpu0.op_class::SimdFloatMisc                 3      0.00%     72.86% # Class of executed instruction
system.cpu0.op_class::SimdFloatMult                 0      0.00%     72.86% # Class of executed instruction
system.cpu0.op_class::SimdFloatMultAcc              0      0.00%     72.86% # Class of executed instruction
system.cpu0.op_class::SimdFloatSqrt                 0      0.00%     72.86% # Class of executed instruction
system.cpu0.op_class::MemRead                 1013134     24.62%     97.47% # Class of executed instruction
system.cpu0.op_class::MemWrite                 103961      2.53%    100.00% # Class of executed instruction
system.cpu0.op_class::IprAccess                     0      0.00%    100.00% # Class of executed instruction
system.cpu0.op_class::InstPrefetch                  0      0.00%    100.00% # Class of executed instruction
system.cpu0.op_class::total                   4115402                       # Class of executed instruction
system.cpu1.dstage2_mmu.stage2_tlb.walker.walks            0                       # Table walker walks requested
system.cpu1.dstage2_mmu.stage2_tlb.walker.walkRequestOrigin_Requested::Data            0                       # Table walker requests started/completed, data/inst
system.cpu1.dstage2_mmu.stage2_tlb.walker.walkRequestOrigin_Requested::Inst            0                       # Table walker requests started/completed, data/inst
system.cpu1.dstage2_mmu.stage2_tlb.walker.walkRequestOrigin_Requested::total            0                       # Table walker requests started/completed, data/inst
system.cpu1.dstage2_mmu.stage2_tlb.walker.walkRequestOrigin_Completed::Data            0                       # Table walker requests started/completed, data/inst
system.cpu1.dstage2_mmu.stage2_tlb.walker.walkRequestOrigin_Completed::Inst            0                       # Table walker requests started/completed, data/inst
system.cpu1.dstage2_mmu.stage2_tlb.walker.walkRequestOrigin_Completed::total            0                       # Table walker requests started/completed, data/inst
system.cpu1.dstage2_mmu.stage2_tlb.walker.walkRequestOrigin::total            0                       # Table walker requests started/completed, data/inst
system.cpu1.dstage2_mmu.stage2_tlb.inst_hits            0                       # ITB inst hits
system.cpu1.dstage2_mmu.stage2_tlb.inst_misses            0                       # ITB inst misses
system.cpu1.dstage2_mmu.stage2_tlb.read_hits            0                       # DTB read hits
system.cpu1.dstage2_mmu.stage2_tlb.read_misses            0                       # DTB read misses
system.cpu1.dstage2_mmu.stage2_tlb.write_hits            0                       # DTB write hits
system.cpu1.dstage2_mmu.stage2_tlb.write_misses            0                       # DTB write misses
system.cpu1.dstage2_mmu.stage2_tlb.flush_tlb            0                       # Number of times complete TLB was flushed
system.cpu1.dstage2_mmu.stage2_tlb.flush_tlb_mva            0                       # Number of times TLB was flushed by MVA
system.cpu1.dstage2_mmu.stage2_tlb.flush_tlb_mva_asid            0                       # Number of times TLB was flushed by MVA & ASID
system.cpu1.dstage2_mmu.stage2_tlb.flush_tlb_asid            0                       # Number of times TLB was flushed by ASID
system.cpu1.dstage2_mmu.stage2_tlb.flush_entries            0                       # Number of entries that have been flushed from TLB
system.cpu1.dstage2_mmu.stage2_tlb.align_faults            0                       # Number of TLB faults due to alignment restrictions
system.cpu1.dstage2_mmu.stage2_tlb.prefetch_faults            0                       # Number of TLB faults due to prefetch
system.cpu1.dstage2_mmu.stage2_tlb.domain_faults            0                       # Number of TLB faults due to domain restrictions
system.cpu1.dstage2_mmu.stage2_tlb.perms_faults            0                       # Number of TLB faults due to permissions restrictions
system.cpu1.dstage2_mmu.stage2_tlb.read_accesses            0                       # DTB read accesses
system.cpu1.dstage2_mmu.stage2_tlb.write_accesses            0                       # DTB write accesses
system.cpu1.dstage2_mmu.stage2_tlb.inst_accesses            0                       # ITB inst accesses
system.cpu1.dstage2_mmu.stage2_tlb.hits             0                       # DTB hits
system.cpu1.dstage2_mmu.stage2_tlb.misses            0                       # DTB misses
system.cpu1.dstage2_mmu.stage2_tlb.accesses            0                       # DTB accesses
system.cpu1.dtb.walker.walks                        0                       # Table walker walks requested
system.cpu1.dtb.walker.walkRequestOrigin_Requested::Data            0                       # Table walker requests started/completed, data/inst
system.cpu1.dtb.walker.walkRequestOrigin_Requested::Inst            0                       # Table walker requests started/completed, data/inst
system.cpu1.dtb.walker.walkRequestOrigin_Requested::total            0                       # Table walker requests started/completed, data/inst
system.cpu1.dtb.walker.walkRequestOrigin_Completed::Data            0                       # Table walker requests started/completed, data/inst
system.cpu1.dtb.walker.walkRequestOrigin_Completed::Inst            0                       # Table walker requests started/completed, data/inst
system.cpu1.dtb.walker.walkRequestOrigin_Completed::total            0                       # Table walker requests started/completed, data/inst
system.cpu1.dtb.walker.walkRequestOrigin::total            0                       # Table walker requests started/completed, data/inst
system.cpu1.dtb.inst_hits                           0                       # ITB inst hits
system.cpu1.dtb.inst_misses                         0                       # ITB inst misses
system.cpu1.dtb.read_hits                           0                       # DTB read hits
system.cpu1.dtb.read_misses                         0                       # DTB read misses
system.cpu1.dtb.write_hits                          0                       # DTB write hits
system.cpu1.dtb.write_misses                        0                       # DTB write misses
system.cpu1.dtb.flush_tlb                           0                       # Number of times complete TLB was flushed
system.cpu1.dtb.flush_tlb_mva                       0                       # Number of times TLB was flushed by MVA
system.cpu1.dtb.flush_tlb_mva_asid                  0                       # Number of times TLB was flushed by MVA & ASID
system.cpu1.dtb.flush_tlb_asid                      0                       # Number of times TLB was flushed by ASID
system.cpu1.dtb.flush_entries                       0                       # Number of entries that have been flushed from TLB
system.cpu1.dtb.align_faults                        0                       # Number of TLB faults due to alignment restrictions
system.cpu1.dtb.prefetch_faults                     0                       # Number of TLB faults due to prefetch
system.cpu1.dtb.domain_faults                       0                       # Number of TLB faults due to domain restrictions
system.cpu1.dtb.perms_faults                        0                       # Number of TLB faults due to permissions restrictions
system.cpu1.dtb.read_accesses                       0                       # DTB read accesses
system.cpu1.dtb.write_accesses                      0                       # DTB write accesses
system.cpu1.dtb.inst_accesses                       0                       # ITB inst accesses
system.cpu1.dtb.hits                                0                       # DTB hits
system.cpu1.dtb.misses                              0                       # DTB misses
system.cpu1.dtb.accesses                            0                       # DTB accesses
system.cpu1.istage2_mmu.stage2_tlb.walker.walks            0                       # Table walker walks requested
system.cpu1.istage2_mmu.stage2_tlb.walker.walkRequestOrigin_Requested::Data            0                       # Table walker requests started/completed, data/inst
system.cpu1.istage2_mmu.stage2_tlb.walker.walkRequestOrigin_Requested::Inst            0                       # Table walker requests started/completed, data/inst
system.cpu1.istage2_mmu.stage2_tlb.walker.walkRequestOrigin_Requested::total            0                       # Table walker requests started/completed, data/inst
system.cpu1.istage2_mmu.stage2_tlb.walker.walkRequestOrigin_Completed::Data            0                       # Table walker requests started/completed, data/inst
system.cpu1.istage2_mmu.stage2_tlb.walker.walkRequestOrigin_Completed::Inst            0                       # Table walker requests started/completed, data/inst
system.cpu1.istage2_mmu.stage2_tlb.walker.walkRequestOrigin_Completed::total            0                       # Table walker requests started/completed, data/inst
system.cpu1.istage2_mmu.stage2_tlb.walker.walkRequestOrigin::total            0                       # Table walker requests started/completed, data/inst
system.cpu1.istage2_mmu.stage2_tlb.inst_hits            0                       # ITB inst hits
system.cpu1.istage2_mmu.stage2_tlb.inst_misses            0                       # ITB inst misses
system.cpu1.istage2_mmu.stage2_tlb.read_hits            0                       # DTB read hits
system.cpu1.istage2_mmu.stage2_tlb.read_misses            0                       # DTB read misses
system.cpu1.istage2_mmu.stage2_tlb.write_hits            0                       # DTB write hits
system.cpu1.istage2_mmu.stage2_tlb.write_misses            0                       # DTB write misses
system.cpu1.istage2_mmu.stage2_tlb.flush_tlb            0                       # Number of times complete TLB was flushed
system.cpu1.istage2_mmu.stage2_tlb.flush_tlb_mva            0                       # Number of times TLB was flushed by MVA
system.cpu1.istage2_mmu.stage2_tlb.flush_tlb_mva_asid            0                       # Number of times TLB was flushed by MVA & ASID
system.cpu1.istage2_mmu.stage2_tlb.flush_tlb_asid            0                       # Number of times TLB was flushed by ASID
system.cpu1.istage2_mmu.stage2_tlb.flush_entries            0                       # Number of entries that have been flushed from TLB
system.cpu1.istage2_mmu.stage2_tlb.align_faults            0                       # Number of TLB faults due to alignment restrictions
system.cpu1.istage2_mmu.stage2_tlb.prefetch_faults            0                       # Number of TLB faults due to prefetch
system.cpu1.istage2_mmu.stage2_tlb.domain_faults            0                       # Number of TLB faults due to domain restrictions
system.cpu1.istage2_mmu.stage2_tlb.perms_faults            0                       # Number of TLB faults due to permissions restrictions
system.cpu1.istage2_mmu.stage2_tlb.read_accesses            0                       # DTB read accesses
system.cpu1.istage2_mmu.stage2_tlb.write_accesses            0                       # DTB write accesses
system.cpu1.istage2_mmu.stage2_tlb.inst_accesses            0                       # ITB inst accesses
system.cpu1.istage2_mmu.stage2_tlb.hits             0                       # DTB hits
system.cpu1.istage2_mmu.stage2_tlb.misses            0                       # DTB misses
system.cpu1.istage2_mmu.stage2_tlb.accesses            0                       # DTB accesses
system.cpu1.itb.walker.walks                        0                       # Table walker walks requested
system.cpu1.itb.walker.walkRequestOrigin_Requested::Data            0                       # Table walker requests started/completed, data/inst
system.cpu1.itb.walker.walkRequestOrigin_Requested::Inst            0                       # Table walker requests started/completed, data/inst
system.cpu1.itb.walker.walkRequestOrigin_Requested::total            0                       # Table walker requests started/completed, data/inst
system.cpu1.itb.walker.walkRequestOrigin_Completed::Data            0                       # Table walker requests started/completed, data/inst
system.cpu1.itb.walker.walkRequestOrigin_Completed::Inst            0                       # Table walker requests started/completed, data/inst
system.cpu1.itb.walker.walkRequestOrigin_Completed::total            0                       # Table walker requests started/completed, data/inst
system.cpu1.itb.walker.walkRequestOrigin::total            0                       # Table walker requests started/completed, data/inst
system.cpu1.itb.inst_hits                           0                       # ITB inst hits
system.cpu1.itb.inst_misses                         0                       # ITB inst misses
system.cpu1.itb.read_hits                           0                       # DTB read hits
system.cpu1.itb.read_misses                         0                       # DTB read misses
system.cpu1.itb.write_hits                          0                       # DTB write hits
system.cpu1.itb.write_misses                        0                       # DTB write misses
system.cpu1.itb.flush_tlb                           0                       # Number of times complete TLB was flushed
system.cpu1.itb.flush_tlb_mva                       0                       # Number of times TLB was flushed by MVA
system.cpu1.itb.flush_tlb_mva_asid                  0                       # Number of times TLB was flushed by MVA & ASID
system.cpu1.itb.flush_tlb_asid                      0                       # Number of times TLB was flushed by ASID
system.cpu1.itb.flush_entries                       0                       # Number of entries that have been flushed from TLB
system.cpu1.itb.align_faults                        0                       # Number of TLB faults due to alignment restrictions
system.cpu1.itb.prefetch_faults                     0                       # Number of TLB faults due to prefetch
system.cpu1.itb.domain_faults                       0                       # Number of TLB faults due to domain restrictions
system.cpu1.itb.perms_faults                        0                       # Number of TLB faults due to permissions restrictions
system.cpu1.itb.read_accesses                       0                       # DTB read accesses
system.cpu1.itb.write_accesses                      0                       # DTB write accesses
system.cpu1.itb.inst_accesses                       0                       # ITB inst accesses
system.cpu1.itb.hits                                0                       # DTB hits
system.cpu1.itb.misses                              0                       # DTB misses
system.cpu1.itb.accesses                            0                       # DTB accesses
system.cpu1.numCycles                         4115402                       # number of cpu cycles simulated
system.cpu1.numWorkItemsStarted                     0                       # number of work items this cpu started
system.cpu1.numWorkItemsCompleted                   0                       # number of work items this cpu completed
system.cpu1.committedInsts                    3782179                       # Number of instructions committed
system.cpu1.committedOps                      3784830                       # Number of ops (including micro ops) committed
system.cpu1.num_int_alu_accesses              3531907                       # Number of integer alu accesses
system.cpu1.num_fp_alu_accesses                     0                       # Number of float alu accesses
system.cpu1.num_func_calls                         37                       # number of times a function call or return occured
system.cpu1.num_conditional_control_insts       252906                       # number of instructions that are conditional controls
system.cpu1.num_int_insts                     3531907                       # number of integer instructions
system.cpu1.num_fp_insts                            0                       # number of float instructions
system.cpu1.num_int_register_reads            7316191                       # number of times the integer registers were read
system.cpu1.num_int_register_writes           3521125                       # number of times the integer registers were written
system.cpu1.num_fp_register_reads                   0                       # number of times the floating registers were read
system.cpu1.num_fp_register_writes                  0                       # number of times the floating registers were written
system.cpu1.num_cc_register_reads            11354496                       # number of times the CC registers were read
system.cpu1.num_cc_register_writes            1509712                       # number of times the CC registers were written
system.cpu1.num_mem_refs                      1018128                       # number of memory refs
system.cpu1.num_load_insts                    1010413                       # Number of load instructions
system.cpu1.num_store_insts                      7715                       # Number of store instructions
system.cpu1.num_idle_cycles              330570.082164                       # Number of idle cycles
system.cpu1.num_busy_cycles              3784831.917836                       # Number of busy cycles
system.cpu1.not_idle_fraction                0.919675                       # Percentage of non-idle cycles
system.cpu1.idle_fraction                    0.080325                       # Percentage of idle cycles
system.cpu1.Branches                           252951                       # Number of branches fetched
system.cpu1.op_class::No_OpClass                    0      0.00%      0.00% # Class of executed instruction
system.cpu1.op_class::IntAlu                  2016701     53.28%     53.28% # Class of executed instruction
system.cpu1.op_class::IntMult                  750003     19.82%     73.10% # Class of executed instruction
system.cpu1.op_class::IntDiv                        0      0.00%     73.10% # Class of executed instruction
system.cpu1.op_class::FloatAdd                      0      0.00%     73.10% # Class of executed instruction
system.cpu1.op_class::FloatCmp                      0      0.00%     73.10% # Class of executed instruction
system.cpu1.op_class::FloatCvt                      0      0.00%     73.10% # Class of executed instruction
system.cpu1.op_class::FloatMult                     0      0.00%     73.10% # Class of executed instruction
system.cpu1.op_class::FloatDiv                      0      0.00%     73.10% # Class of executed instruction
system.cpu1.op_class::FloatSqrt                     0      0.00%     73.10% # Class of executed instruction
system.cpu1.op_class::SimdAdd                       0      0.00%     73.10% # Class of executed instruction
system.cpu1.op_class::SimdAddAcc                    0      0.00%     73.10% # Class of executed instruction
system.cpu1.op_class::SimdAlu                       0      0.00%     73.10% # Class of executed instruction
system.cpu1.op_class::SimdCmp                       0      0.00%     73.10% # Class of executed instruction
system.cpu1.op_class::SimdCvt                       0      0.00%     73.10% # Class of executed instruction
system.cpu1.op_class::SimdMisc                      0      0.00%     73.10% # Class of executed instruction
system.cpu1.op_class::SimdMult                      0      0.00%     73.10% # Class of executed instruction
system.cpu1.op_class::SimdMultAcc                   0      0.00%     73.10% # Class of executed instruction
system.cpu1.op_class::SimdShift                     0      0.00%     73.10% # Class of executed instruction
system.cpu1.op_class::SimdShiftAcc                  0      0.00%     73.10% # Class of executed instruction
system.cpu1.op_class::SimdSqrt                      0      0.00%     73.10% # Class of executed instruction
system.cpu1.op_class::SimdFloatAdd                  0      0.00%     73.10% # Class of executed instruction
system.cpu1.op_class::SimdFloatAlu                  0      0.00%     73.10% # Class of executed instruction
system.cpu1.op_class::SimdFloatCmp                  0      0.00%     73.10% # Class of executed instruction
system.cpu1.op_class::SimdFloatCvt                  0      0.00%     73.10% # Class of executed instruction
system.cpu1.op_class::SimdFloatDiv                  0      0.00%     73.10% # Class of executed instruction
system.cpu1.op_class::SimdFloatMisc                 0      0.00%     73.10% # Class of executed instruction
system.cpu1.op_class::SimdFloatMult                 0      0.00%     73.10% # Class of executed instruction
system.cpu1.op_class::SimdFloatMultAcc              0      0.00%     73.10% # Class of executed instruction
system.cpu1.op_class::SimdFloatSqrt                 0      0.00%     73.10% # Class of executed instruction
system.cpu1.op_class::MemRead                 1010413     26.70%     99.80% # Class of executed instruction
system.cpu1.op_class::MemWrite                   7715      0.20%    100.00% # Class of executed instruction
system.cpu1.op_class::IprAccess                     0      0.00%    100.00% # Class of executed instruction
system.cpu1.op_class::InstPrefetch                  0      0.00%    100.00% # Class of executed instruction
system.cpu1.op_class::total                   3784832                       # Class of executed instruction
system.cpu2.dstage2_mmu.stage2_tlb.walker.walks            0                       # Table walker walks requested
system.cpu2.dstage2_mmu.stage2_tlb.walker.walkRequestOrigin_Requested::Data            0                       # Table walker requests started/completed, data/inst
system.cpu2.dstage2_mmu.stage2_tlb.walker.walkRequestOrigin_Requested::Inst            0                       # Table walker requests started/completed, data/inst
system.cpu2.dstage2_mmu.stage2_tlb.walker.walkRequestOrigin_Requested::total            0                       # Table walker requests started/completed, data/inst
system.cpu2.dstage2_mmu.stage2_tlb.walker.walkRequestOrigin_Completed::Data            0                       # Table walker requests started/completed, data/inst
system.cpu2.dstage2_mmu.stage2_tlb.walker.walkRequestOrigin_Completed::Inst            0                       # Table walker requests started/completed, data/inst
system.cpu2.dstage2_mmu.stage2_tlb.walker.walkRequestOrigin_Completed::total            0                       # Table walker requests started/completed, data/inst
system.cpu2.dstage2_mmu.stage2_tlb.walker.walkRequestOrigin::total            0                       # Table walker requests started/completed, data/inst
system.cpu2.dstage2_mmu.stage2_tlb.inst_hits            0                       # ITB inst hits
system.cpu2.dstage2_mmu.stage2_tlb.inst_misses            0                       # ITB inst misses
system.cpu2.dstage2_mmu.stage2_tlb.read_hits            0                       # DTB read hits
system.cpu2.dstage2_mmu.stage2_tlb.read_misses            0                       # DTB read misses
system.cpu2.dstage2_mmu.stage2_tlb.write_hits            0                       # DTB write hits
system.cpu2.dstage2_mmu.stage2_tlb.write_misses            0                       # DTB write misses
system.cpu2.dstage2_mmu.stage2_tlb.flush_tlb            0                       # Number of times complete TLB was flushed
system.cpu2.dstage2_mmu.stage2_tlb.flush_tlb_mva            0                       # Number of times TLB was flushed by MVA
system.cpu2.dstage2_mmu.stage2_tlb.flush_tlb_mva_asid            0                       # Number of times TLB was flushed by MVA & ASID
system.cpu2.dstage2_mmu.stage2_tlb.flush_tlb_asid            0                       # Number of times TLB was flushed by ASID
system.cpu2.dstage2_mmu.stage2_tlb.flush_entries            0                       # Number of entries that have been flushed from TLB
system.cpu2.dstage2_mmu.stage2_tlb.align_faults            0                       # Number of TLB faults due to alignment restrictions
system.cpu2.dstage2_mmu.stage2_tlb.prefetch_faults            0                       # Number of TLB faults due to prefetch
system.cpu2.dstage2_mmu.stage2_tlb.domain_faults            0                       # Number of TLB faults due to domain restrictions
system.cpu2.dstage2_mmu.stage2_tlb.perms_faults            0                       # Number of TLB faults due to permissions restrictions
system.cpu2.dstage2_mmu.stage2_tlb.read_accesses            0                       # DTB read accesses
system.cpu2.dstage2_mmu.stage2_tlb.write_accesses            0                       # DTB write accesses
system.cpu2.dstage2_mmu.stage2_tlb.inst_accesses            0                       # ITB inst accesses
system.cpu2.dstage2_mmu.stage2_tlb.hits             0                       # DTB hits
system.cpu2.dstage2_mmu.stage2_tlb.misses            0                       # DTB misses
system.cpu2.dstage2_mmu.stage2_tlb.accesses            0                       # DTB accesses
system.cpu2.dtb.walker.walks                        0                       # Table walker walks requested
system.cpu2.dtb.walker.walkRequestOrigin_Requested::Data            0                       # Table walker requests started/completed, data/inst
system.cpu2.dtb.walker.walkRequestOrigin_Requested::Inst            0                       # Table walker requests started/completed, data/inst
system.cpu2.dtb.walker.walkRequestOrigin_Requested::total            0                       # Table walker requests started/completed, data/inst
system.cpu2.dtb.walker.walkRequestOrigin_Completed::Data            0                       # Table walker requests started/completed, data/inst
system.cpu2.dtb.walker.walkRequestOrigin_Completed::Inst            0                       # Table walker requests started/completed, data/inst
system.cpu2.dtb.walker.walkRequestOrigin_Completed::total            0                       # Table walker requests started/completed, data/inst
system.cpu2.dtb.walker.walkRequestOrigin::total            0                       # Table walker requests started/completed, data/inst
system.cpu2.dtb.inst_hits                           0                       # ITB inst hits
system.cpu2.dtb.inst_misses                         0                       # ITB inst misses
[...]
system.cpu3.dtb.align_faults                        0                       # Number of TLB faults due to alignment restrictions
system.cpu3.dtb.prefetch_faults                     0                       # Number of TLB faults due to prefetch
system.cpu3.dtb.domain_faults                       0                       # Number of TLB faults due to domain restrictions
system.cpu3.dtb.perms_faults                        0                       # Number of TLB faults due to permissions restrictions
system.cpu3.dtb.read_accesses                       0                       # DTB read accesses
system.cpu3.dtb.write_accesses                      0                       # DTB write accesses
system.cpu3.dtb.inst_accesses                       0                       # ITB inst accesses
system.cpu3.dtb.hits                                0                       # DTB hits
system.cpu3.dtb.misses                              0                       # DTB misses
system.cpu3.dtb.accesses                            0                       # DTB accesses
system.cpu3.istage2_mmu.stage2_tlb.walker.walks            0                       # Table walker walks requested
system.cpu3.istage2_mmu.stage2_tlb.walker.walkRequestOrigin_Requested::Data            0                       # Table walker requests started/completed, data/inst
system.cpu3.istage2_mmu.stage2_tlb.walker.walkRequestOrigin_Requested::Inst            0                       # Table walker requests started/completed, data/inst
system.cpu3.istage2_mmu.stage2_tlb.walker.walkRequestOrigin_Requested::total            0                       # Table walker requests started/completed, data/inst
system.cpu3.istage2_mmu.stage2_tlb.walker.walkRequestOrigin_Completed::Data            0                       # Table walker requests started/completed, data/inst
system.cpu3.istage2_mmu.stage2_tlb.walker.walkRequestOrigin_Completed::Inst            0                       # Table walker requests started/completed, data/inst
system.cpu3.istage2_mmu.stage2_tlb.walker.walkRequestOrigin_Completed::total            0                       # Table walker requests started/completed, data/inst
system.cpu3.istage2_mmu.stage2_tlb.walker.walkRequestOrigin::total            0                       # Table walker requests started/completed, data/inst
system.cpu3.istage2_mmu.stage2_tlb.inst_hits            0                       # ITB inst hits
system.cpu3.istage2_mmu.stage2_tlb.inst_misses            0                       # ITB inst misses
system.cpu3.istage2_mmu.stage2_tlb.read_hits            0                       # DTB read hits
system.cpu3.istage2_mmu.stage2_tlb.read_misses            0                       # DTB read misses
system.cpu3.istage2_mmu.stage2_tlb.write_hits            0                       # DTB write hits
system.cpu3.istage2_mmu.stage2_tlb.write_misses            0                       # DTB write misses
system.cpu3.istage2_mmu.stage2_tlb.flush_tlb            0                       # Number of times complete TLB was flushed
system.cpu3.istage2_mmu.stage2_tlb.flush_tlb_mva            0                       # Number of times TLB was flushed by MVA
system.cpu3.istage2_mmu.stage2_tlb.flush_tlb_mva_asid            0                       # Number of times TLB was flushed by MVA & ASID
system.cpu3.istage2_mmu.stage2_tlb.flush_tlb_asid            0                       # Number of times TLB was flushed by ASID
system.cpu3.istage2_mmu.stage2_tlb.flush_entries            0                       # Number of entries that have been flushed from TLB
system.cpu3.istage2_mmu.stage2_tlb.align_faults            0                       # Number of TLB faults due to alignment restrictions
system.cpu3.istage2_mmu.stage2_tlb.prefetch_faults            0                       # Number of TLB faults due to prefetch
system.cpu3.istage2_mmu.stage2_tlb.domain_faults            0                       # Number of TLB faults due to domain restrictions
system.cpu3.istage2_mmu.stage2_tlb.perms_faults            0                       # Number of TLB faults due to permissions restrictions
system.cpu3.istage2_mmu.stage2_tlb.read_accesses            0                       # DTB read accesses
system.cpu3.istage2_mmu.stage2_tlb.write_accesses            0                       # DTB write accesses
system.cpu3.istage2_mmu.stage2_tlb.inst_accesses            0                       # ITB inst accesses
system.cpu3.istage2_mmu.stage2_tlb.hits             0                       # DTB hits
system.cpu3.istage2_mmu.stage2_tlb.misses            0                       # DTB misses
system.cpu3.istage2_mmu.stage2_tlb.accesses            0                       # DTB accesses
system.cpu3.itb.walker.walks                        0                       # Table walker walks requested
system.cpu3.itb.walker.walkRequestOrigin_Requested::Data            0                       # Table walker requests started/completed, data/inst
system.cpu3.itb.walker.walkRequestOrigin_Requested::Inst            0                       # Table walker requests started/completed, data/inst
system.cpu3.itb.walker.walkRequestOrigin_Requested::total            0                       # Table walker requests started/completed, data/inst
system.cpu3.itb.walker.walkRequestOrigin_Completed::Data            0                       # Table walker requests started/completed, data/inst
system.cpu3.itb.walker.walkRequestOrigin_Completed::Inst            0                       # Table walker requests started/completed, data/inst
system.cpu3.itb.walker.walkRequestOrigin_Completed::total            0                       # Table walker requests started/completed, data/inst
system.cpu3.itb.walker.walkRequestOrigin::total            0                       # Table walker requests started/completed, data/inst
system.cpu3.itb.inst_hits                           0                       # ITB inst hits
system.cpu3.itb.inst_misses                         0                       # ITB inst misses
system.cpu3.itb.read_hits                           0                       # DTB read hits
system.cpu3.itb.read_misses                         0                       # DTB read misses
system.cpu3.itb.write_hits                          0                       # DTB write hits
system.cpu3.itb.write_misses                        0                       # DTB write misses
system.cpu3.itb.flush_tlb                           0                       # Number of times complete TLB was flushed
system.cpu3.itb.flush_tlb_mva                       0                       # Number of times TLB was flushed by MVA
system.cpu3.itb.flush_tlb_mva_asid                  0                       # Number of times TLB was flushed by MVA & ASID
system.cpu3.itb.flush_tlb_asid                      0                       # Number of times TLB was flushed by ASID
system.cpu3.itb.flush_entries                       0                       # Number of entries that have been flushed from TLB
system.cpu3.itb.align_faults                        0                       # Number of TLB faults due to alignment restrictions
system.cpu3.itb.prefetch_faults                     0                       # Number of TLB faults due to prefetch
system.cpu3.itb.domain_faults                       0                       # Number of TLB faults due to domain restrictions
system.cpu3.itb.perms_faults                        0                       # Number of TLB faults due to permissions restrictions
system.cpu3.itb.read_accesses                       0                       # DTB read accesses
system.cpu3.itb.write_accesses                      0                       # DTB write accesses
system.cpu3.itb.inst_accesses                       0                       # ITB inst accesses
system.cpu3.itb.hits                                0                       # DTB hits
system.cpu3.itb.misses                              0                       # DTB misses
system.cpu3.itb.accesses                            0                       # DTB accesses
system.cpu3.numCycles                         4115402                       # number of cpu cycles simulated
system.cpu3.numWorkItemsStarted                     0                       # number of work items this cpu started
system.cpu3.numWorkItemsCompleted                   0                       # number of work items this cpu completed
system.cpu3.committedInsts                    3781838                       # Number of instructions committed
system.cpu3.committedOps                      3784493                       # Number of ops (including micro ops) committed
system.cpu3.num_int_alu_accesses              3531659                       # Number of integer alu accesses
system.cpu3.num_fp_alu_accesses                     0                       # Number of float alu accesses
system.cpu3.num_func_calls                         37                       # number of times a function call or return occured
system.cpu3.num_conditional_control_insts       252819                       # number of instructions that are conditional controls
system.cpu3.num_int_insts                     3531659                       # number of integer instructions
system.cpu3.num_fp_insts                            0                       # number of float instructions
system.cpu3.num_int_register_reads            7315698                       # number of times the integer registers were read
system.cpu3.num_int_register_writes           3521003                       # number of times the integer registers were written
system.cpu3.num_fp_register_reads                   0                       # number of times the floating registers were read
system.cpu3.num_fp_register_writes                  0                       # number of times the floating registers were written
system.cpu3.num_cc_register_reads            11353488                       # number of times the CC registers were read
system.cpu3.num_cc_register_writes            1509196                       # number of times the CC registers were written
system.cpu3.num_mem_refs                      1018086                       # number of memory refs
system.cpu3.num_load_insts                    1010367                       # Number of load instructions
system.cpu3.num_store_insts                      7719                       # Number of store instructions
system.cpu3.num_idle_cycles              330906.082246                       # Number of idle cycles
system.cpu3.num_busy_cycles              3784495.917754                       # Number of busy cycles
system.cpu3.not_idle_fraction                0.919593                       # Percentage of non-idle cycles
system.cpu3.idle_fraction                    0.080407                       # Percentage of idle cycles
system.cpu3.Branches                           252862                       # Number of branches fetched
system.cpu3.op_class::No_OpClass                    0      0.00%      0.00% # Class of executed instruction
system.cpu3.op_class::IntAlu                  2016407     53.28%     53.28% # Class of executed instruction
system.cpu3.op_class::IntMult                  750003     19.82%     73.10% # Class of executed instruction
system.cpu3.op_class::IntDiv                        0      0.00%     73.10% # Class of executed instruction
system.cpu3.op_class::FloatAdd                      0      0.00%     73.10% # Class of executed instruction
system.cpu3.op_class::FloatCmp                      0      0.00%     73.10% # Class of executed instruction
system.cpu3.op_class::FloatCvt                      0      0.00%     73.10% # Class of executed instruction
system.cpu3.op_class::FloatMult                     0      0.00%     73.10% # Class of executed instruction
system.cpu3.op_class::FloatDiv                      0      0.00%     73.10% # Class of executed instruction
system.cpu3.op_class::FloatSqrt                     0      0.00%     73.10% # Class of executed instruction
system.cpu3.op_class::SimdAdd                       0      0.00%     73.10% # Class of executed instruction
system.cpu3.op_class::SimdAddAcc                    0      0.00%     73.10% # Class of executed instruction
system.cpu3.op_class::SimdAlu                       0      0.00%     73.10% # Class of executed instruction
system.cpu3.op_class::SimdCmp                       0      0.00%     73.10% # Class of executed instruction
system.cpu3.op_class::SimdCvt                       0      0.00%     73.10% # Class of executed instruction
system.cpu3.op_class::SimdMisc                      0      0.00%     73.10% # Class of executed instruction
system.cpu3.op_class::SimdMult                      0      0.00%     73.10% # Class of executed instruction
system.cpu3.op_class::SimdMultAcc                   0      0.00%     73.10% # Class of executed instruction
system.cpu3.op_class::SimdShift                     0      0.00%     73.10% # Class of executed instruction
system.cpu3.op_class::SimdShiftAcc                  0      0.00%     73.10% # Class of executed instruction
system.cpu3.op_class::SimdSqrt                      0      0.00%     73.10% # Class of executed instruction
system.cpu3.op_class::SimdFloatAdd                  0      0.00%     73.10% # Class of executed instruction
system.cpu3.op_class::SimdFloatAlu                  0      0.00%     73.10% # Class of executed instruction
system.cpu3.op_class::SimdFloatCmp                  0      0.00%     73.10% # Class of executed instruction
system.cpu3.op_class::SimdFloatCvt                  0      0.00%     73.10% # Class of executed instruction
system.cpu3.op_class::SimdFloatDiv                  0      0.00%     73.10% # Class of executed instruction
system.cpu3.op_class::SimdFloatMisc                 0      0.00%     73.10% # Class of executed instruction
system.cpu3.op_class::SimdFloatMult                 0      0.00%     73.10% # Class of executed instruction
system.cpu3.op_class::SimdFloatMultAcc              0      0.00%     73.10% # Class of executed instruction
system.cpu3.op_class::SimdFloatSqrt                 0      0.00%     73.10% # Class of executed instruction
system.cpu3.op_class::MemRead                 1010367     26.70%     99.80% # Class of executed instruction
system.cpu3.op_class::MemWrite                   7719      0.20%    100.00% # Class of executed instruction
system.cpu3.op_class::IprAccess                     0      0.00%    100.00% # Class of executed instruction
system.cpu3.op_class::InstPrefetch                  0      0.00%    100.00% # Class of executed instruction
system.cpu3.op_class::total                   3784496                       # Class of executed instruction
system.membus.trans_dist::ReadReq            19446694                       # Transaction distribution
system.membus.trans_dist::ReadResp           19446758                       # Transaction distribution
system.membus.trans_dist::WriteReq             126939                       # Transaction distribution
system.membus.trans_dist::WriteResp            126939                       # Transaction distribution
system.membus.trans_dist::SoftPFReq                 4                       # Transaction distribution
system.membus.trans_dist::SoftPFResp                4                       # Transaction distribution
system.membus.trans_dist::LoadLockedReq            64                       # Transaction distribution
system.membus.trans_dist::StoreCondReq             64                       # Transaction distribution
system.membus.trans_dist::StoreCondResp            64                       # Transaction distribution
system.membus.pkt_count_system.cpu0.icache_port::system.mem_ctrls.port      8112970                       # Packet count per connected master and slave (bytes)
system.membus.pkt_count_system.cpu0.dcache_port::system.mem_ctrls.port      2233880                       # Packet count per connected master and slave (bytes)
system.membus.pkt_count_system.cpu1.icache_port::system.mem_ctrls.port      7564362                       # Packet count per connected master and slave (bytes)
system.membus.pkt_count_system.cpu1.dcache_port::system.mem_ctrls.port      2036246                       # Packet count per connected master and slave (bytes)
system.membus.pkt_count_system.cpu2.icache_port::system.mem_ctrls.port      7564026                       # Packet count per connected master and slave (bytes)
system.membus.pkt_count_system.cpu2.dcache_port::system.mem_ctrls.port      2036202                       # Packet count per connected master and slave (bytes)
system.membus.pkt_count_system.cpu3.icache_port::system.mem_ctrls.port      7563682                       # Packet count per connected master and slave (bytes)
system.membus.pkt_count_system.cpu3.dcache_port::system.mem_ctrls.port      2036162                       # Packet count per connected master and slave (bytes)
system.membus.pkt_count::total               39147530                       # Packet count per connected master and slave (bytes)
system.membus.pkt_size_system.cpu0.icache_port::system.mem_ctrls.port     16225940                       # Cumulative packet size per connected master and slave (bytes)
system.membus.pkt_size_system.cpu0.dcache_port::system.mem_ctrls.port      4468966                       # Cumulative packet size per connected master and slave (bytes)
system.membus.pkt_size_system.cpu1.icache_port::system.mem_ctrls.port     15128724                       # Cumulative packet size per connected master and slave (bytes)
system.membus.pkt_size_system.cpu1.dcache_port::system.mem_ctrls.port      4072654                       # Cumulative packet size per connected master and slave (bytes)
system.membus.pkt_size_system.cpu2.icache_port::system.mem_ctrls.port     15128052                       # Cumulative packet size per connected master and slave (bytes)
system.membus.pkt_size_system.cpu2.dcache_port::system.mem_ctrls.port      4072566                       # Cumulative packet size per connected master and slave (bytes)
system.membus.pkt_size_system.cpu3.icache_port::system.mem_ctrls.port     15127364                       # Cumulative packet size per connected master and slave (bytes)
system.membus.pkt_size_system.cpu3.dcache_port::system.mem_ctrls.port      4072494                       # Cumulative packet size per connected master and slave (bytes)
system.membus.pkt_size::total                78296760                       # Cumulative packet size per connected master and slave (bytes)
system.membus.snoops                                0                       # Total snoops (count)
system.membus.snoop_fanout::samples          19573765                       # Request fanout histogram
system.membus.snoop_fanout::mean             3.786896                       # Request fanout histogram
system.membus.snoop_fanout::stdev            0.409500                       # Request fanout histogram
system.membus.snoop_fanout::underflows              0      0.00%      0.00% # Request fanout histogram
system.membus.snoop_fanout::0                       0      0.00%      0.00% # Request fanout histogram
system.membus.snoop_fanout::1                       0      0.00%      0.00% # Request fanout histogram
system.membus.snoop_fanout::2                       0      0.00%      0.00% # Request fanout histogram
system.membus.snoop_fanout::3                 4171245     21.31%     21.31% # Request fanout histogram
system.membus.snoop_fanout::4                15402520     78.69%    100.00% # Request fanout histogram
system.membus.snoop_fanout::overflows               0      0.00%    100.00% # Request fanout histogram
system.membus.snoop_fanout::min_value               3                       # Request fanout histogram
system.membus.snoop_fanout::max_value               4                       # Request fanout histogram
system.membus.snoop_fanout::total            19573765                       # Request fanout histogram

---------- End Simulation Statistics   ----------
